3
  
       XFOIL         Version 6.8
  
 Calculated polar for: semi-cubic1200                  
  
 1 1 Reynolds number fixed          Mach number fixed         
  
 xtrf =   1.000 (top)        1.000 (bottom)  
 Mach =   0.000     Re =     0.500 e 6     Ncrit =   9.000
  
   alpha     CL        CD       CDp       CM    Top Xtr Bot Xtr
  ------- -------- --------- --------- -------- ------- -------
 -13.500  -1.1063   0.03771   0.03272  -0.0427  1.0000  0.0182
 -13.000  -1.1025   0.03403   0.02880  -0.0404  1.0000  0.0189
 -12.500  -1.0924   0.03106   0.02556  -0.0375  1.0000  0.0195
 -12.000  -1.0880   0.02749   0.02180  -0.0332  1.0000  0.0203
 -11.500  -1.0738   0.02521   0.01942  -0.0289  1.0000  0.0213
 -11.000  -1.0517   0.02354   0.01764  -0.0247  1.0000  0.0226
 -10.500  -1.0239   0.02219   0.01610  -0.0208  1.0000  0.0242
  -9.000  -0.9578   0.01805   0.01170  -0.0044  1.0000  0.0299
  -8.500  -0.9278   0.01650   0.01007  -0.0004  1.0000  0.0332
  -8.000  -0.8943   0.01569   0.00918   0.0035  1.0000  0.0368
  -7.500  -0.8648   0.01455   0.00800   0.0081  1.0000  0.0418
  -7.000  -0.8305   0.01372   0.00712   0.0118  1.0000  0.0487
  -6.500  -0.7893   0.01293   0.00632   0.0142  0.9998  0.0588
  -6.000  -0.7198   0.01196   0.00542   0.0106  0.9982  0.0807
  -5.500  -0.6487   0.01094   0.00463   0.0067  0.9961  0.1248
  -5.000  -0.5756   0.00995   0.00398   0.0021  0.9942  0.1983
  -3.000  -0.3199   0.00746   0.00285  -0.0064  0.9508  0.5505
  -2.500  -0.2642   0.00703   0.00262  -0.0060  0.9366  0.6159
  -1.500  -0.1580   0.00643   0.00229  -0.0039  0.9015  0.7190
  -1.000  -0.1055   0.00625   0.00218  -0.0026  0.8800  0.7605
  -0.500  -0.0524   0.00615   0.00211  -0.0013  0.8565  0.7963
   0.000   0.0000   0.00611   0.00211   0.0000  0.8275  0.8275
   0.500   0.0523   0.00615   0.00211   0.0013  0.7963  0.8565
   1.000   0.1055   0.00625   0.00218   0.0026  0.7605  0.8800
   1.500   0.1580   0.00643   0.00229   0.0039  0.7190  0.9015
   2.000   0.2104   0.00669   0.00243   0.0052  0.6715  0.9204
   2.500   0.2642   0.00703   0.00262   0.0061  0.6159  0.9366
   3.000   0.3199   0.00746   0.00285   0.0064  0.5505  0.9508
   3.500   0.3861   0.00806   0.00317   0.0041  0.4700  0.9593
   4.000   0.4503   0.00870   0.00349   0.0021  0.3801  0.9683
   4.500   0.5202   0.00952   0.00391  -0.0015  0.2813  0.9745
   5.500   0.6488   0.01094   0.00463  -0.0067  0.1250  0.9961
   6.000   0.7198   0.01196   0.00542  -0.0106  0.0808  0.9982
   6.500   0.7894   0.01293   0.00632  -0.0142  0.0588  0.9998
   7.000   0.8303   0.01372   0.00712  -0.0118  0.0487  1.0000
   7.500   0.8648   0.01455   0.00800  -0.0081  0.0418  1.0000
   8.000   0.8943   0.01569   0.00918  -0.0036  0.0368  1.0000
   8.500   0.9277   0.01649   0.01007   0.0004  0.0332  1.0000
   9.000   0.9575   0.01806   0.01170   0.0045  0.0299  1.0000
  10.500   1.0243   0.02219   0.01610   0.0208  0.0242  1.0000
  11.000   1.0522   0.02354   0.01764   0.0246  0.0226  1.0000
  11.500   1.0744   0.02521   0.01942   0.0288  0.0213  1.0000
  12.000   1.0886   0.02750   0.02180   0.0331  0.0203  1.0000
  12.500   1.0934   0.03106   0.02556   0.0374  0.0195  1.0000
  13.000   1.1037   0.03403   0.02879   0.0403  0.0189  1.0000
  13.25    1.10575  0.035865  0.03075   0.0414                   interpolated
  13.500   1.1078   0.03770   0.03271   0.0425  0.0182  1.0000
  13.75    1.1075   0.039825  0.034945  0.0431                   interpolated
  14.000   1.1072   0.04195   0.03718   0.0437  0.0176  1.0000
  14.500   1.1020   0.04693   0.04236   0.0436  0.0171  1.0000
  15.000   1.0926   0.05279   0.04840   0.0423  0.0166  1.0000
  15.500   1.0799   0.05970   0.05548   0.0400  0.0163  1.0000
  16.000   1.0628   0.06782   0.06377   0.0371  0.0159  1.0000
  16.500   1.0374   0.07805   0.07425   0.0329  0.0157  1.0000
  17.000   1.0089   0.08993   0.08642   0.0255  0.0156  1.0000
  17.500   0.9769   0.10391   0.10068   0.0165  0.0156  1.0000
  18.000   0.9385   0.12086   0.11791   0.0053  0.0156  1.0000
  18.5     0.93198  0.13391   0.11791   0.0053                   interpolated
  90.      0.       2.        0.11791   0.0053                   added data
-1.0002
  
       XFOIL         Version 6.97
  
 Calculated polar for: qj1223                                          
  
 1 1 Reynolds number fixed          Mach number fixed         
  
 xtrf =   1.000 (top)        1.000 (bottom)  
 Mach =   0.000     Re =     0.400 e 6     Ncrit =   9.000
  
   alpha    CL        CD       CDp       CM     Top_Xtr  Bot_Xtr
  ------ -------- --------- --------- -------- -------- --------
  -5.000   0.5793   0.05618   0.05225  -0.2015   0.7528   0.0418
  -4.000   0.9490   0.01553   0.00959  -0.3228   0.7400   0.0474
  -3.000   1.0833   0.01393   0.00751  -0.3296   0.7263   0.0607
  -2.000   1.2070   0.01327   0.00660  -0.3333   0.7122   0.0809
  -1.000   1.3246   0.01313   0.00633  -0.3356   0.6980   0.1122
   0.000   1.4382   0.01327   0.00641  -0.3369   0.6836   0.1557
   1.000   1.5482   0.01359   0.00674  -0.3376   0.6691   0.2091
   2.000   1.6546   0.01407   0.00728  -0.3376   0.6544   0.2711
   3.000   1.7573   0.01466   0.00799  -0.3370   0.6395   0.3415
   4.000   1.8559   0.01537   0.00888  -0.3357   0.6243   0.4270
   5.000   1.9501   0.01617   0.00999  -0.3337   0.6089   0.5648
   6.000   2.0312   0.01694   0.01119  -0.3291   0.5931   1.0000
   7.000   2.0984   0.01839   0.01274  -0.3219   0.5768   1.0000
   8.000   2.1569   0.02030   0.01483  -0.3137   0.5598   1.0000
   9.000   2.2083   0.02275   0.01751  -0.3048   0.5420   1.0000
   9.500   2.2236   0.02449   0.01930  -0.2989                  interpolated
  10.000   2.2389   0.02624   0.02109  -0.2930   0.5158   1.0000
  10.500   2.2383   0.02928   0.02425  -0.2855                  interpolated
  11.000   2.2377   0.03233   0.02742  -0.2780   0.4832   1.0000
  12.000   2.2264   0.04096   0.03626  -0.2641   0.4423   1.0000
  13.000   2.2113   0.05133   0.04676  -0.2518   0.3978   1.0000
  14.000   2.1727   0.06525   0.06070  -0.2393   0.3419   1.0000
  15.000   2.0956   0.08475   0.08001  -0.2268   0.2642   1.0000
  16.000   1.9915   0.10919   0.10405  -0.2171   0.1695   1.0000
  17.000   1.9031   0.13325   0.12763  -0.2130   0.0791   1.0000
  18.000   1.8636   0.15121   0.14546  -0.2128   0.0403   1.0000
  19.000   1.8489   0.16609   0.16053  -0.2145   0.0284   1.0000
  20.000   1.8447   0.17950   0.17419  -0.2175   0.0221   1.0000
  90.000   0.0000   2.00000   0.17419  -0.2175                  added data
1.0002
  
       XFOIL         Version 6.8
  
 Calculated polar for: semi-cubic1200                  
  
 1 1 Reynolds number fixed          Mach number fixed         
  
 xtrf =   1.000 (top)        1.000 (bottom)  
 Mach =   0.000     Re =     0.500 e 6     Ncrit =   9.000
  
   alpha     CL        CD       CDp       CM    Top Xtr Bot Xtr
  ------- -------- --------- --------- -------- ------- -------
 -13.500  -1.1063   0.03771   0.03272  -0.0427  1.0000  0.0182
 -13.000  -1.1025   0.03403   0.02880  -0.0404  1.0000  0.0189
 -12.500  -1.0924   0.03106   0.02556  -0.0375  1.0000  0.0195
 -12.000  -1.0880   0.02749   0.02180  -0.0332  1.0000  0.0203
 -11.500  -1.0738   0.02521   0.01942  -0.0289  1.0000  0.0213
 -11.000  -1.0517   0.02354   0.01764  -0.0247  1.0000  0.0226
 -10.500  -1.0239   0.02219   0.01610  -0.0208  1.0000  0.0242
  -9.000  -0.9578   0.01805   0.01170  -0.0044  1.0000  0.0299
  -8.500  -0.9278   0.01650   0.01007  -0.0004  1.0000  0.0332
  -8.000  -0.8943   0.01569   0.00918   0.0035  1.0000  0.0368
  -7.500  -0.8648   0.01455   0.00800   0.0081  1.0000  0.0418
  -7.000  -0.8305   0.01372   0.00712   0.0118  1.0000  0.0487
  -6.500  -0.7893   0.01293   0.00632   0.0142  0.9998  0.0588
  -6.000  -0.7198   0.01196   0.00542   0.0106  0.9982  0.0807
  -5.500  -0.6487   0.01094   0.00463   0.0067  0.9961  0.1248
  -5.000  -0.5756   0.00995   0.00398   0.0021  0.9942  0.1983
  -3.000  -0.3199   0.00746   0.00285  -0.0064  0.9508  0.5505
  -2.500  -0.2642   0.00703   0.00262  -0.0060  0.9366  0.6159
  -1.500  -0.1580   0.00643   0.00229  -0.0039  0.9015  0.7190
  -1.000  -0.1055   0.00625   0.00218  -0.0026  0.8800  0.7605
  -0.500  -0.0524   0.00615   0.00211  -0.0013  0.8565  0.7963
   0.000   0.0000   0.00611   0.00211   0.0000  0.8275  0.8275
   0.500   0.0523   0.00615   0.00211   0.0013  0.7963  0.8565
   1.000   0.1055   0.00625   0.00218   0.0026  0.7605  0.8800
   1.500   0.1580   0.00643   0.00229   0.0039  0.7190  0.9015
   2.000   0.2104   0.00669   0.00243   0.0052  0.6715  0.9204
   2.500   0.2642   0.00703   0.00262   0.0061  0.6159  0.9366
   3.000   0.3199   0.00746   0.00285   0.0064  0.5505  0.9508
   3.500   0.3861   0.00806   0.00317   0.0041  0.4700  0.9593
   4.000   0.4503   0.00870   0.00349   0.0021  0.3801  0.9683
   4.500   0.5202   0.00952   0.00391  -0.0015  0.2813  0.9745
   5.500   0.6488   0.01094   0.00463  -0.0067  0.1250  0.9961
   6.000   0.7198   0.01196   0.00542  -0.0106  0.0808  0.9982
   6.500   0.7894   0.01293   0.00632  -0.0142  0.0588  0.9998
   7.000   0.8303   0.01372   0.00712  -0.0118  0.0487  1.0000
   7.500   0.8648   0.01455   0.00800  -0.0081  0.0418  1.0000
   8.000   0.8943   0.01569   0.00918  -0.0036  0.0368  1.0000
   8.500   0.9277   0.01649   0.01007   0.0004  0.0332  1.0000
   9.000   0.9575   0.01806   0.01170   0.0045  0.0299  1.0000
  10.500   1.0243   0.02219   0.01610   0.0208  0.0242  1.0000
  11.000   1.0522   0.02354   0.01764   0.0246  0.0226  1.0000
  11.500   1.0744   0.02521   0.01942   0.0288  0.0213  1.0000
  12.000   1.0886   0.02750   0.02180   0.0331  0.0203  1.0000
  12.500   1.0934   0.03106   0.02556   0.0374  0.0195  1.0000
  13.000   1.1037   0.03403   0.02879   0.0403  0.0189  1.0000
  13.25    1.10575  0.035865  0.03075   0.0414                   interpolated
  13.500   1.1078   0.03770   0.03271   0.0425  0.0182  1.0000
  13.75    1.1075   0.039825  0.034945  0.0431                   interpolated
  14.000   1.1072   0.04195   0.03718   0.0437  0.0176  1.0000
  14.500   1.1020   0.04693   0.04236   0.0436  0.0171  1.0000
  15.000   1.0926   0.05279   0.04840   0.0423  0.0166  1.0000
  15.500   1.0799   0.05970   0.05548   0.0400  0.0163  1.0000
  16.000   1.0628   0.06782   0.06377   0.0371  0.0159  1.0000
  16.500   1.0374   0.07805   0.07425   0.0329  0.0157  1.0000
  17.000   1.0089   0.08993   0.08642   0.0255  0.0156  1.0000
  17.500   0.9769   0.10391   0.10068   0.0165  0.0156  1.0000
  18.000   0.9385   0.12086   0.11791   0.0053  0.0156  1.0000
  18.5     0.93198  0.13391   0.11791   0.0053                   interpolated
  90.      0.       2.        0.11791   0.0053                   added data
2.
